
     RDKit          3D

 31  0  0  0  0  0  0  0  0  0999 V2000
   24.6941   34.4669  104.8154 C   0  0  0  0  0  0  0  0  0  0  0  0
   24.6048   34.5120  104.8771 C   0  0  0  0  0  0  0  0  0  0  0  0
   24.5382   34.4956  104.8081 C   0  0  0  0  0  0  0  0  0  0  0  0
   24.5874   34.4081  104.8488 C   0  0  0  0  0  0  0  0  0  0  0  0
   24.5644   34.5291  104.7533 C   0  0  0  0  0  0  0  0  0  0  0  0
   24.5160   34.5450  104.8353 O   0  0  0  0  0  0  0  0  0  0  0  0
   24.6026   34.4573  104.7877 N   0  0  0  0  0  0  0  0  0  0  0  0
   24.5856   34.4214  104.7577 C   0  0  0  0  0  0  0  0  0  0  0  0
   24.6090   34.4998  104.7873 O   0  0  0  0  0  0  0  0  0  0  0  0
   24.7541   34.3780  104.7879 N   0  0  0  0  0  0  0  0  0  0  0  0
   24.6048   34.4160  104.7145 C   0  0  0  0  0  0  0  0  0  0  0  0
   24.6687   34.4990  104.8743 C   0  0  0  0  0  0  0  0  0  0  0  0
   24.5851   34.4018  104.8169 C   0  0  0  0  0  0  0  0  0  0  0  0
   24.6483   34.4871  104.8831 N   0  0  0  0  0  0  0  0  0  0  0  0
   24.7480   34.4972  104.7095 O   0  0  0  0  0  0  0  0  0  0  0  0
   24.5752   34.5076  104.7568 O   0  0  0  0  0  0  0  0  0  0  0  0
   24.5082   34.4437  104.8381 O   0  0  0  0  0  0  0  0  0  0  0  0
   24.5720   34.3659  104.9777 C   0  0  0  0  0  0  0  0  0  0  0  0
   24.5222   34.5522  104.7588 N   0  0  0  0  0  0  0  0  0  0  0  0
   24.5785   34.4590  104.8948 C   0  0  0  0  0  0  0  0  0  0  0  0
   24.6737   34.4585  104.7814 O   0  0  0  0  0  0  0  0  0  0  0  0
   24.6166   34.3250  104.7477 C   0  0  0  0  0  0  0  0  0  0  0  0
   24.7117   34.4820  104.7314 C   0  0  0  0  0  0  0  0  0  0  0  0
   24.6362   34.4004  104.7953 N   0  0  0  0  0  0  0  0  0  0  0  0
   24.6304   34.3185  104.7862 C   0  0  0  0  0  0  0  0  0  0  0  0
   24.5995   34.4790  104.6724 C   0  0  0  0  0  0  0  0  0  0  0  0
   24.5908   34.4396  104.6776 N   0  0  0  0  0  0  0  0  0  0  0  0
   24.6743   34.4221  104.7827 C   0  0  0  0  0  0  0  0  0  0  0  0
   24.6424   34.4145  104.7911 C   0  0  0  0  0  0  0  0  0  0  0  0
   24.5981   34.5829  104.7478 N   0  0  0  0  0  0  0  0  0  0  0  0
   24.5659   34.5207  104.6454 N   0  0  0  0  0  0  0  0  0  0  0  0
M  END
$$$$
