
     RDKit          3D

 31  0  0  0  0  0  0  0  0  0999 V2000
    0.0217    0.0632    0.1818 C   0  0  0  0  0  0  0  0  0  0  0  0
    0.0209    0.0629    0.1811 C   0  0  0  0  0  0  0  0  0  0  0  0
    0.0220    0.0632    0.1820 C   0  0  0  0  0  0  0  0  0  0  0  0
    0.0216    0.0631    0.1817 C   0  0  0  0  0  0  0  0  0  0  0  0
    0.0219    0.0633    0.1821 C   0  0  0  0  0  0  0  0  0  0  0  0
    0.0219    0.0635    0.1823 C   0  0  0  0  0  0  0  0  0  0  0  0
    0.0211    0.0628    0.1812 C   0  0  0  0  0  0  0  0  0  0  0  0
    0.0213    0.0634    0.1818 C   0  0  0  0  0  0  0  0  0  0  0  0
    0.0218    0.0632    0.1819 C   0  0  0  0  0  0  0  0  0  0  0  0
    0.0213    0.0635    0.1818 C   0  0  0  0  0  0  0  0  0  0  0  0
    0.0217    0.0634    0.1819 C   0  0  0  0  0  0  0  0  0  0  0  0
    0.0215    0.0631    0.1815 C   0  0  0  0  0  0  0  0  0  0  0  0
    0.0214    0.0633    0.1818 C   0  0  0  0  0  0  0  0  0  0  0  0
    0.0217    0.0632    0.1818 C   0  0  0  0  0  0  0  0  0  0  0  0
    0.0215    0.0634    0.1819 C   0  0  0  0  0  0  0  0  0  0  0  0
    0.0210    0.0631    0.1814 C   0  0  0  0  0  0  0  0  0  0  0  0
    0.0210    0.0631    0.1813 C   0  0  0  0  0  0  0  0  0  0  0  0
    0.0219    0.0630    0.1817 C   0  0  0  0  0  0  0  0  0  0  0  0
    0.0219    0.0633    0.1821 C   0  0  0  0  0  0  0  0  0  0  0  0
    0.0213    0.0633    0.1816 C   0  0  0  0  0  0  0  0  0  0  0  0
    0.0213    0.0634    0.1816 C   0  0  0  0  0  0  0  0  0  0  0  0
    0.0216    0.0634    0.1820 C   0  0  0  0  0  0  0  0  0  0  0  0
    0.0215    0.0634    0.1818 C   0  0  0  0  0  0  0  0  0  0  0  0
    0.0216    0.0632    0.1818 C   0  0  0  0  0  0  0  0  0  0  0  0
    0.0215    0.0630    0.1816 C   0  0  0  0  0  0  0  0  0  0  0  0
    0.0214    0.0637    0.1820 C   0  0  0  0  0  0  0  0  0  0  0  0
    0.0218    0.0632    0.1820 C   0  0  0  0  0  0  0  0  0  0  0  0
    0.0214    0.0631    0.1816 C   0  0  0  0  0  0  0  0  0  0  0  0
    0.0212    0.0631    0.1816 C   0  0  0  0  0  0  0  0  0  0  0  0
    0.0220    0.0635    0.1824 C   0  0  0  0  0  0  0  0  0  0  0  0
    0.0218    0.0629    0.1817 C   0  0  0  0  0  0  0  0  0  0  0  0
M  END
$$$$
