
     RDKit          3D

<<<<<<< HEAD
 31 31  0  0  0  0  0  0  0  0999 V2000
   24.6643   34.5378  104.8490 O   0  0  0  0  0  0  0  0  0  0  0  0
   24.5671   34.5796  104.9127 O   0  0  0  0  0  0  0  0  0  0  0  0
   24.5129   34.5685  104.8406 O   0  0  0  0  0  0  0  0  0  0  0  0
   24.5503   34.4774  104.8831 O   0  0  0  0  0  0  0  0  0  0  0  0
   24.5390   34.6026  104.7853 O   0  0  0  0  0  0  0  0  0  0  0  0
   24.4749   34.6113  104.8716 O   0  0  0  0  0  0  0  0  0  0  0  0
   24.5945   34.5403  104.8145 O   0  0  0  0  0  0  0  0  0  0  0  0
   24.5689   34.4986  104.7879 O   0  0  0  0  0  0  0  0  0  0  0  0
   24.5919   34.5776  104.8168 O   0  0  0  0  0  0  0  0  0  0  0  0
   24.7016   34.4405  104.8259 O   0  0  0  0  0  0  0  0  0  0  0  0
   24.5636   34.4829  104.7503 O   0  0  0  0  0  0  0  0  0  0  0  0
   24.6274   34.5657  104.9102 O   0  0  0  0  0  0  0  0  0  0  0  0
   24.5681   34.4797  104.8465 O   0  0  0  0  0  0  0  0  0  0  0  0
   24.6107   34.5549  104.9185 O   0  0  0  0  0  0  0  0  0  0  0  0
   24.6955   34.5592  104.7479 O   0  0  0  0  0  0  0  0  0  0  0  0
   24.5581   34.5851  104.7867 O   0  0  0  0  0  0  0  0  0  0  0  0
   24.4788   34.5150  104.8716 O   0  0  0  0  0  0  0  0  0  0  0  0
   24.5157   34.4268  105.0166 O   0  0  0  0  0  0  0  0  0  0  0  0
   24.4891   34.6219  104.7932 O   0  0  0  0  0  0  0  0  0  0  0  0
   24.5448   34.5279  104.9297 O   0  0  0  0  0  0  0  0  0  0  0  0
   24.6526   34.5338  104.8124 O   0  0  0  0  0  0  0  0  0  0  0  0
   24.5640   34.3877  104.7855 O   0  0  0  0  0  0  0  0  0  0  0  0
   24.6743   34.5502  104.7664 O   0  0  0  0  0  0  0  0  0  0  0  0
   24.6237   34.4808  104.8234 O   0  0  0  0  0  0  0  0  0  0  0  0
   24.5779   34.3810  104.8242 O   0  0  0  0  0  0  0  0  0  0  0  0
   24.5579   34.5453  104.7087 O   0  0  0  0  0  0  0  0  0  0  0  0
   24.5495   34.5062  104.7135 O   0  0  0  0  0  0  0  0  0  0  0  0
   24.6488   34.4960  104.8144 O   0  0  0  0  0  0  0  0  0  0  0  0
   24.6378   34.4987  104.8173 O   0  0  0  0  0  0  0  0  0  0  0  0
   24.5573   34.6492  104.7840 O   0  0  0  0  0  0  0  0  0  0  0  0
   24.5208   34.5856  104.6824 O   0  0  0  0  0  0  0  0  0  0  0  0
  9 23  1  0
  9 12  1  0
 11 29  1  0
 11 22  1  0
 13 25  1  0
 15 28  1  0
  3 20  1  0
 23 24  1  0
  4  7  1  0
  3  8  1  0
  7 12  1  0
  4 14  1  0
  2  6  1  0
  5 31  1  0
 13 21  1  0
 10 21  1  0
  1 10  1  0
  5  6  1  0
  1 15  1  0
 16 27  1  0
 24 25  1  0
 16 31  1  0
  8 22  1  0
  2 17  1  0
 14 29  1  0
 26 30  1  0
 17 19  1  0
 19 26  1  0
 18 20  1  0
 27 28  1  0
 18 30  1  0
=======
 31  0  0  0  0  0  0  0  0  0999 V2000
    0.0214    0.0631    0.1815 C   0  0  0  0  0  0  0  0  0  0  0  0
    0.0214    0.0634    0.1817 C   0  0  0  0  0  0  0  0  0  0  0  0
    0.0219    0.0637    0.1824 C   0  0  0  0  0  0  0  0  0  0  0  0
    0.0209    0.0633    0.1815 C   0  0  0  0  0  0  0  0  0  0  0  0
    0.0218    0.0638    0.1822 C   0  0  0  0  0  0  0  0  0  0  0  0
    0.0219    0.0631    0.1819 C   0  0  0  0  0  0  0  0  0  0  0  0
    0.0216    0.0632    0.1817 C   0  0  0  0  0  0  0  0  0  0  0  0
    0.0218    0.0633    0.1819 C   0  0  0  0  0  0  0  0  0  0  0  0
    0.0212    0.0635    0.1817 C   0  0  0  0  0  0  0  0  0  0  0  0
    0.0218    0.0634    0.1821 C   0  0  0  0  0  0  0  0  0  0  0  0
    0.0212    0.0631    0.1815 C   0  0  0  0  0  0  0  0  0  0  0  0
    0.0212    0.0631    0.1814 C   0  0  0  0  0  0  0  0  0  0  0  0
    0.0215    0.0635    0.1821 C   0  0  0  0  0  0  0  0  0  0  0  0
    0.0216    0.0634    0.1818 C   0  0  0  0  0  0  0  0  0  0  0  0
    0.0218    0.0635    0.1821 C   0  0  0  0  0  0  0  0  0  0  0  0
    0.0210    0.0632    0.1812 C   0  0  0  0  0  0  0  0  0  0  0  0
    0.0215    0.0633    0.1818 C   0  0  0  0  0  0  0  0  0  0  0  0
    0.0217    0.0630    0.1817 C   0  0  0  0  0  0  0  0  0  0  0  0
    0.0220    0.0634    0.1821 C   0  0  0  0  0  0  0  0  0  0  0  0
    0.0215    0.0634    0.1819 C   0  0  0  0  0  0  0  0  0  0  0  0
    0.0216    0.0636    0.1820 C   0  0  0  0  0  0  0  0  0  0  0  0
    0.0214    0.0632    0.1815 C   0  0  0  0  0  0  0  0  0  0  0  0
    0.0215    0.0631    0.1817 C   0  0  0  0  0  0  0  0  0  0  0  0
    0.0215    0.0636    0.1818 C   0  0  0  0  0  0  0  0  0  0  0  0
    0.0216    0.0636    0.1821 C   0  0  0  0  0  0  0  0  0  0  0  0
    0.0218    0.0635    0.1821 C   0  0  0  0  0  0  0  0  0  0  0  0
    0.0218    0.0635    0.1820 C   0  0  0  0  0  0  0  0  0  0  0  0
    0.0219    0.0633    0.1821 C   0  0  0  0  0  0  0  0  0  0  0  0
    0.0212    0.0633    0.1814 C   0  0  0  0  0  0  0  0  0  0  0  0
    0.0218    0.0634    0.1821 C   0  0  0  0  0  0  0  0  0  0  0  0
    0.0217    0.0635    0.1820 C   0  0  0  0  0  0  0  0  0  0  0  0
>>>>>>> parent of 9f06ac1 (train and sample)
M  END
$$$$
