
     RDKit          3D

 31  0  0  0  0  0  0  0  0  0999 V2000
   24.5659   34.4706  104.9091 C   0  0  0  0  0  0  0  0  0  0  0  0
   24.6067   34.4974  104.8982 C   0  0  0  0  0  0  0  0  0  0  0  0
   24.6427   34.4892  104.8007 C   0  0  0  0  0  0  0  0  0  0  0  0
   24.6565   34.3308  104.8735 C   0  0  0  0  0  0  0  0  0  0  0  0
   24.6084   34.6262  104.8295 C   0  0  0  0  0  0  0  0  0  0  0  0
   24.6069   34.3924  104.7835 O   0  0  0  0  0  0  0  0  0  0  0  0
   24.6422   34.4297  104.8629 N   0  0  0  0  0  0  0  0  0  0  0  0
   24.5840   34.3743  104.7600 C   0  0  0  0  0  0  0  0  0  0  0  0
   24.6296   34.3952  104.7023 O   0  0  0  0  0  0  0  0  0  0  0  0
   24.4838   34.4302  104.7122 N   0  0  0  0  0  0  0  0  0  0  0  0
   24.6659   34.4902  104.7869 C   0  0  0  0  0  0  0  0  0  0  0  0
   24.5979   34.4422  104.7420 C   0  0  0  0  0  0  0  0  0  0  0  0
   24.6378   34.3845  104.8461 C   0  0  0  0  0  0  0  0  0  0  0  0
   24.6176   34.4808  104.7416 N   0  0  0  0  0  0  0  0  0  0  0  0
   24.5618   34.4212  104.8285 O   0  0  0  0  0  0  0  0  0  0  0  0
   24.6608   34.5760  104.8624 O   0  0  0  0  0  0  0  0  0  0  0  0
   24.6151   34.2711  104.7600 O   0  0  0  0  0  0  0  0  0  0  0  0
   24.6841   34.5357  104.7102 C   0  0  0  0  0  0  0  0  0  0  0  0
   24.7072   34.4582  104.7474 N   0  0  0  0  0  0  0  0  0  0  0  0
   24.6226   34.4384  104.7382 C   0  0  0  0  0  0  0  0  0  0  0  0
   24.6589   34.5011  104.7228 O   0  0  0  0  0  0  0  0  0  0  0  0
   24.5849   34.4603  104.8843 C   0  0  0  0  0  0  0  0  0  0  0  0
   24.6399   34.4718  104.8365 C   0  0  0  0  0  0  0  0  0  0  0  0
   24.6290   34.5046  104.7932 N   0  0  0  0  0  0  0  0  0  0  0  0
   24.5183   34.3959  104.8147 C   0  0  0  0  0  0  0  0  0  0  0  0
   24.6876   34.4474  104.8881 C   0  0  0  0  0  0  0  0  0  0  0  0
   24.5974   34.4443  104.7311 N   0  0  0  0  0  0  0  0  0  0  0  0
   24.6453   34.4101  104.8215 C   0  0  0  0  0  0  0  0  0  0  0  0
   24.6079   34.4786  104.8424 C   0  0  0  0  0  0  0  0  0  0  0  0
   24.6210   34.4086  104.8925 N   0  0  0  0  0  0  0  0  0  0  0  0
   24.6391   34.3820  104.8024 N   0  0  0  0  0  0  0  0  0  0  0  0
M  END
$$$$
